Version 4
SHEET 1 2984 680
WIRE 352 -176 336 -176
WIRE 384 -176 352 -176
WIRE 480 -176 464 -176
WIRE 512 -176 480 -176
WIRE 384 -144 384 -176
WIRE 512 -144 512 -176
WIRE 2080 -48 2064 -48
WIRE 2192 -48 2160 -48
WIRE 2240 -48 2192 -48
WIRE 2400 -48 2320 -48
WIRE 384 -32 384 -64
WIRE 512 -32 512 -64
WIRE 1632 0 1584 0
WIRE 1760 0 1712 0
WIRE 1824 0 1760 0
WIRE 2000 0 1904 0
WIRE 2064 32 2064 -48
WIRE 2288 32 2256 32
WIRE 2304 32 2288 32
WIRE 768 48 688 48
WIRE 864 48 768 48
WIRE 1088 48 864 48
WIRE 1168 48 1088 48
WIRE 1232 48 1168 48
WIRE 1360 48 1312 48
WIRE 1424 48 1360 48
WIRE 1552 48 1504 48
WIRE 1584 48 1584 0
WIRE 1584 48 1552 48
WIRE 2256 48 2256 32
WIRE 688 64 688 48
WIRE 768 64 768 48
WIRE 1088 64 1088 48
WIRE 576 80 528 80
WIRE 640 80 576 80
WIRE 864 80 864 48
WIRE 1856 96 1824 96
WIRE 1872 96 1856 96
WIRE 2192 96 2192 -48
WIRE 2224 96 2192 96
WIRE 80 112 -192 112
WIRE 1168 112 1168 48
WIRE 1360 112 1360 48
WIRE 1552 112 1552 48
WIRE 640 128 624 128
WIRE 1824 128 1824 96
WIRE 2400 128 2400 -48
WIRE 2400 128 2368 128
WIRE 2480 128 2400 128
WIRE 2592 128 2560 128
WIRE 80 144 16 144
WIRE 1760 144 1760 0
WIRE 1808 144 1760 144
WIRE 16 160 16 144
WIRE 352 160 256 160
WIRE 384 160 352 160
WIRE 2000 160 2000 0
WIRE 2000 160 1872 160
WIRE 2224 160 2000 160
WIRE 80 176 48 176
WIRE 384 176 384 160
WIRE 624 176 624 128
WIRE 688 176 688 144
WIRE 768 176 768 144
WIRE 864 176 864 144
WIRE 1088 176 1088 144
WIRE 1808 176 1760 176
WIRE 48 192 48 176
WIRE 48 192 -112 192
WIRE 2592 192 2592 128
WIRE -192 208 -192 112
WIRE -112 208 -112 192
WIRE 1856 208 1856 192
WIRE 1920 208 1856 208
WIRE 1936 208 1920 208
WIRE 768 240 688 240
WIRE 848 240 768 240
WIRE 944 240 848 240
WIRE 1088 240 944 240
WIRE 1168 240 1168 176
WIRE 1168 240 1088 240
WIRE 1232 240 1168 240
WIRE 1360 240 1360 176
WIRE 1360 240 1312 240
WIRE 1424 240 1360 240
WIRE 1552 240 1552 176
WIRE 1552 240 1504 240
WIRE 1584 240 1552 240
WIRE 1824 240 1824 192
WIRE 1856 240 1824 240
WIRE 1872 240 1856 240
WIRE 688 256 688 240
WIRE 768 256 768 240
WIRE 848 256 848 240
WIRE 1088 256 1088 240
WIRE 576 272 528 272
WIRE 640 272 576 272
WIRE 944 272 944 240
WIRE 2256 272 2256 208
WIRE 2304 272 2256 272
WIRE 2320 272 2304 272
WIRE 1584 288 1584 240
WIRE 1632 288 1584 288
WIRE 1760 288 1760 176
WIRE 1760 288 1712 288
WIRE 1824 288 1760 288
WIRE 2000 288 1904 288
WIRE 384 304 384 256
WIRE -192 320 -192 288
WIRE -112 320 -112 288
WIRE 640 320 624 320
WIRE 2000 336 2000 288
WIRE 2592 336 2592 272
WIRE 624 368 624 320
WIRE 688 368 688 336
WIRE 768 368 768 336
WIRE 848 368 848 336
WIRE 944 368 944 336
WIRE 1088 368 1088 336
FLAG 16 160 0
FLAG -112 320 0
FLAG -192 320 0
FLAG 352 160 0_hold
FLAG 688 176 0
FLAG 848 368 0
FLAG 944 368 0
FLAG 768 176 0
FLAG 864 176 0
FLAG 624 176 0
FLAG 624 368 0
FLAG 768 368 0
FLAG 688 368 0
FLAG 384 304 0
FLAG 1088 176 0
FLAG 1088 368 0
FLAG 512 -32 0
FLAG 384 -32 0
FLAG 352 -176 5V
FLAG 480 -176 -5V
FLAG 1856 240 -5V
FLAG 1856 96 5V
FLAG 2000 336 0
FLAG 2288 32 5V
FLAG 2592 336 0
FLAG 2064 32 0
FLAG 2304 272 -5V
FLAG 1920 208 5V
FLAG 576 80 0_hold
FLAG 576 272 0_hold
FLAG 2592 128 out
SYMBOL SpecialFunctions\\sample 160 144 R0
SYMATTR InstName A1
SYMBOL voltage -112 192 R0
WINDOW 123 24 124 Left 2
WINDOW 39 0 0 Left 0
WINDOW 3 -28 163 Left 2
SYMATTR InstName V1
SYMATTR Value PULSE(-10 10 0 100p 100p 12.5n 25n)
SYMBOL voltage -192 192 R0
WINDOW 3 -249 1 Left 2
WINDOW 123 24 124 Left 2
WINDOW 39 0 0 Left 0
SYMATTR Value SINE(5m 5m 5Meg)
SYMATTR InstName V2
SYMBOL res 368 160 R0
SYMATTR InstName R1
SYMATTR Value 1Meg
SYMBOL res 752 48 R0
SYMATTR InstName R2
SYMATTR Value 1.1k
SYMBOL cap 848 80 R0
SYMATTR InstName C1
SYMATTR Value 5p
SYMBOL cap 928 272 R0
SYMATTR InstName C2
SYMATTR Value 5p
SYMBOL res 832 240 R0
SYMATTR InstName R3
SYMATTR Value 1.1k
SYMBOL current 768 256 R0
WINDOW 0 24 80 Left 2
WINDOW 3 8 0 Left 2
WINDOW 123 -30 -39 Left 2
WINDOW 39 0 0 Left 0
SYMATTR InstName I1
SYMATTR Value 10m
SYMATTR Value2 AC 10m
SYMBOL g2 688 160 M180
SYMATTR InstName G1
SYMATTR Value 1
SYMBOL g2 688 352 M180
SYMATTR InstName G2
SYMATTR Value -1
SYMBOL res 1072 48 R0
SYMATTR InstName R4
SYMATTR Value 56
SYMBOL res 1072 240 R0
SYMATTR InstName R5
SYMATTR Value 56
SYMBOL voltage 512 -160 R0
WINDOW 3 25 101 Left 2
WINDOW 123 23 91 Left 2
WINDOW 39 0 0 Left 0
SYMATTR Value -5
SYMATTR InstName V4
SYMBOL voltage 384 -160 R0
WINDOW 3 24 98 Left 2
WINDOW 123 23 91 Left 2
WINDOW 39 0 0 Left 0
SYMATTR Value 5
SYMATTR InstName V5
SYMBOL res 1728 -16 R90
WINDOW 0 0 56 VBottom 2
WINDOW 3 32 56 VTop 2
SYMATTR InstName R6
SYMATTR Value 1k
SYMBOL res 1728 272 R90
WINDOW 0 0 56 VBottom 2
WINDOW 3 32 56 VTop 2
SYMATTR InstName R7
SYMATTR Value 1k
SYMBOL res 1920 272 R90
WINDOW 0 0 56 VBottom 2
WINDOW 3 32 56 VTop 2
SYMATTR InstName R8
SYMATTR Value 3.9k
SYMBOL res 1920 -16 R90
WINDOW 0 0 56 VBottom 2
WINDOW 3 32 56 VTop 2
SYMATTR InstName R9
SYMATTR Value 3.9k
SYMBOL res 2576 112 R90
WINDOW 0 0 56 VBottom 2
WINDOW 3 32 56 VTop 2
SYMATTR InstName R10
SYMATTR Value 50
SYMBOL res 2576 176 R0
SYMATTR InstName Rload
SYMATTR Value 50
SYMBOL cap 1536 112 R0
SYMATTR InstName C3
SYMATTR Value 150p
SYMBOL ind 1408 64 R270
WINDOW 0 32 56 VTop 2
WINDOW 3 5 56 VBottom 2
SYMATTR InstName L1
SYMATTR Value 1µ
SYMBOL ind 1408 256 R270
WINDOW 0 32 56 VTop 2
WINDOW 3 5 56 VBottom 2
SYMATTR InstName L2
SYMATTR Value 1µ
SYMBOL cap 1344 112 R0
SYMATTR InstName C4
SYMATTR Value 150p
SYMBOL ind 1216 64 R270
WINDOW 0 32 56 VTop 2
WINDOW 3 5 56 VBottom 2
SYMATTR InstName L3
SYMATTR Value 820n
SYMBOL ind 1216 256 R270
WINDOW 0 32 56 VTop 2
WINDOW 3 5 56 VBottom 2
SYMATTR InstName L4
SYMATTR Value 820n
SYMBOL cap 1152 112 R0
SYMATTR InstName C5
SYMATTR Value 56p
SYMBOL res 2336 -64 R90
WINDOW 0 0 56 VBottom 2
WINDOW 3 32 56 VTop 2
SYMATTR InstName R12
SYMATTR Value 1k
SYMBOL res 2176 -64 R90
WINDOW 0 0 56 VBottom 2
WINDOW 3 32 56 VTop 2
SYMATTR InstName R13
SYMATTR Value 1k
SYMBOL Opamps\\LT1809 2256 128 R0
SYMATTR InstName U2
SYMBOL Opamps\\ADA4807-1 1840 160 R0
WINDOW 3 27 -47 Left 2
SYMATTR InstName U3
TEXT 96 -16 Left 2 !.ac dec 1k 1 300meg
